version 2
run StaticGridMobility-attack-0-20150515-16:03:22-3454
attr configname StaticGridMobility-attack
attr datetime 20150515-16:03:22
attr experiment StaticGridMobility-attack
attr inifile omnetpp.ini
attr iterationvars ""
attr iterationvars2 $repetition=0
attr measurement ""
attr network MobileNetwork
attr processid 3454
attr repetition 0
attr replication #0
attr resultdir results
attr runnumber 0
attr seedset 0

scalar MobileNetwork.host[0].mobility 	x 	128.57142857143
scalar MobileNetwork.host[0].mobility 	y 	133.33333333333
scalar MobileNetwork.host[0].mobility 	z 	0
scalar MobileNetwork.host[1].mobility 	x 	185.71428571429
scalar MobileNetwork.host[1].mobility 	y 	133.33333333333
scalar MobileNetwork.host[1].mobility 	z 	0
scalar MobileNetwork.host[2].mobility 	x 	242.85714285714
scalar MobileNetwork.host[2].mobility 	y 	133.33333333333
scalar MobileNetwork.host[2].mobility 	z 	0
scalar MobileNetwork.host[3].mobility 	x 	300
scalar MobileNetwork.host[3].mobility 	y 	133.33333333333
scalar MobileNetwork.host[3].mobility 	z 	0
scalar MobileNetwork.host[4].mobility 	x 	357.14285714286
scalar MobileNetwork.host[4].mobility 	y 	133.33333333333
scalar MobileNetwork.host[4].mobility 	z 	0
scalar MobileNetwork.host[5].mobility 	x 	414.28571428571
scalar MobileNetwork.host[5].mobility 	y 	133.33333333333
scalar MobileNetwork.host[5].mobility 	z 	0
scalar MobileNetwork.host[6].mobility 	x 	471.42857142857
scalar MobileNetwork.host[6].mobility 	y 	133.33333333333
scalar MobileNetwork.host[6].mobility 	z 	0
scalar MobileNetwork.host[7].mobility 	x 	128.57142857143
scalar MobileNetwork.host[7].mobility 	y 	200
scalar MobileNetwork.host[7].mobility 	z 	0
scalar MobileNetwork.host[8].mobility 	x 	185.71428571429
scalar MobileNetwork.host[8].mobility 	y 	200
scalar MobileNetwork.host[8].mobility 	z 	0
scalar MobileNetwork.host[9].mobility 	x 	242.85714285714
scalar MobileNetwork.host[9].mobility 	y 	200
scalar MobileNetwork.host[9].mobility 	z 	0
scalar MobileNetwork.host[10].mobility 	x 	300
scalar MobileNetwork.host[10].mobility 	y 	200
scalar MobileNetwork.host[10].mobility 	z 	0
scalar MobileNetwork.host[11].mobility 	x 	357.14285714286
scalar MobileNetwork.host[11].mobility 	y 	200
scalar MobileNetwork.host[11].mobility 	z 	0
scalar MobileNetwork.host[12].mobility 	x 	414.28571428571
scalar MobileNetwork.host[12].mobility 	y 	200
scalar MobileNetwork.host[12].mobility 	z 	0
scalar MobileNetwork.host[13].mobility 	x 	471.42857142857
scalar MobileNetwork.host[13].mobility 	y 	200
scalar MobileNetwork.host[13].mobility 	z 	0
scalar MobileNetwork.host[14].mobility 	x 	128.57142857143
scalar MobileNetwork.host[14].mobility 	y 	266.66666666667
scalar MobileNetwork.host[14].mobility 	z 	0
scalar MobileNetwork.host[15].mobility 	x 	185.71428571429
scalar MobileNetwork.host[15].mobility 	y 	266.66666666667
scalar MobileNetwork.host[15].mobility 	z 	0
scalar MobileNetwork.host[16].mobility 	x 	242.85714285714
scalar MobileNetwork.host[16].mobility 	y 	266.66666666667
scalar MobileNetwork.host[16].mobility 	z 	0
scalar MobileNetwork.host[17].mobility 	x 	300
scalar MobileNetwork.host[17].mobility 	y 	266.66666666667
scalar MobileNetwork.host[17].mobility 	z 	0
scalar MobileNetwork.host[18].mobility 	x 	357.14285714286
scalar MobileNetwork.host[18].mobility 	y 	266.66666666667
scalar MobileNetwork.host[18].mobility 	z 	0
scalar MobileNetwork.host[19].mobility 	x 	414.28571428571
scalar MobileNetwork.host[19].mobility 	y 	266.66666666667
scalar MobileNetwork.host[19].mobility 	z 	0
