version 2
run Attack_Free-0-20160826-10:07:43-9060
attr configname Attack_Free
attr datetime 20160826-10:07:43
attr experiment Attack_Free
attr inifile omnetpp.ini
attr iterationvars ""
attr iterationvars2 $repetition=0
attr measurement ""
attr network Scenario
attr processid 9060
attr repetition 0
attr replication #0
attr resultdir results
attr runnumber 0
attr seedset 0

scalar Scenario.client.networkLayer.arp 	failedARPResolution:count 	0
attr title  "ARP failed resolutions, count"
scalar Scenario.client.networkLayer.arp 	completedARPResolution:count 	1
attr title  "ARP completed resolutions, count"
scalar Scenario.client.networkLayer.arp 	initiatedARPResolution:count 	1
attr title  "ARP initiated resolutions, count"
scalar Scenario.client.networkLayer.arp 	sentReply:count 	0
attr title  "ARP replies sent, count"
scalar Scenario.client.networkLayer.arp 	sentReq:count 	1
attr title  "ARP request sent, count"
scalar Scenario.client.lo0.lo 	droppedPkBitError:count 	0
attr interpolationmode  none
attr source  dropPkBitError
attr title  "packets dropped/bit error, count"
scalar Scenario.client.lo0.lo 	droppedPkBitError:sum(packetBytes) 	0
attr interpolationmode  none
attr source  dropPkBitError
attr title  "packets dropped/bit error, sum(packetBytes)"
scalar Scenario.client.lo0.lo 	rcvdPkFromHL:count 	0
attr interpolationmode  none
attr source  packetReceivedFromUpper
attr title  "packets received from higher layer, count"
scalar Scenario.client.lo0.lo 	rcvdPkFromHL:sum(packetBytes) 	0
attr interpolationmode  none
attr source  packetReceivedFromUpper
attr title  "packets received from higher layer, sum(packetBytes)"
scalar Scenario.client.lo0.lo 	passedUpPk:count 	0
attr interpolationmode  none
attr source  packetSentToUpper
attr title  "packets passed to higher layer, count"
scalar Scenario.client.lo0.lo 	passedUpPk:sum(packetBytes) 	0
attr interpolationmode  none
attr source  packetSentToUpper
attr title  "packets passed to higher layer, sum(packetBytes)"
scalar Scenario.client.eth[0].mac 	"simulated time" 	90
scalar Scenario.client.eth[0].mac 	full-duplex 	1
scalar Scenario.client.eth[0].mac 	"frames/sec sent" 	5
scalar Scenario.client.eth[0].mac 	"frames/sec rcvd" 	0.011111111111111
scalar Scenario.client.eth[0].mac 	"bits/sec sent" 	51730.488888889
scalar Scenario.client.eth[0].mac 	"bits/sec rcvd" 	5.6888888888889
scalar Scenario.client.eth[0].mac 	"rx channel idle (%)" 	99.9999936
scalar Scenario.client.eth[0].mac 	"rx channel utilization (%)" 	6.4e-06
scalar Scenario.client.eth[0].mac 	droppedPkNotForUs:count 	0
attr interpolationmode  none
attr source  dropPkNotForUs
attr title  "packets dropped/not for us, count"
scalar Scenario.client.eth[0].mac 	droppedPkNotForUs:sum(packetBytes) 	0
attr interpolationmode  none
attr source  dropPkNotForUs
attr title  "packets dropped/not for us, sum(packetBytes)"
scalar Scenario.client.eth[0].mac 	droppedPkIfaceDown:count 	0
attr interpolationmode  none
attr source  dropPkIfaceDown
attr title  "packets dropped/interface down, count"
scalar Scenario.client.eth[0].mac 	droppedPkIfaceDown:sum(packetBytes) 	0
attr interpolationmode  none
attr source  dropPkIfaceDown
attr title  "packets dropped/interface down, sum(packetBytes)"
scalar Scenario.client.eth[0].mac 	droppedPkBitError:count 	0
attr interpolationmode  none
attr source  dropPkBitError
attr title  "packets dropped/bit error, count"
scalar Scenario.client.eth[0].mac 	droppedPkBitError:sum(packetBytes) 	0
attr interpolationmode  none
attr source  dropPkBitError
attr title  "packets dropped/bit error, sum(packetBytes)"
scalar Scenario.client.eth[0].mac 	rxPkFromHL:count 	450
attr interpolationmode  none
attr source  rxPkFromHL
attr title  "packet bytes from higher layer, count"
scalar Scenario.client.eth[0].mac 	rxPkFromHL:sum(packetBytes) 	581968
attr interpolationmode  none
attr source  rxPkFromHL
attr title  "packet bytes from higher layer, sum(packetBytes)"
scalar Scenario.client.eth[0].mac 	rxPausePkUnits:count 	0
attr interpolationmode  none
attr title  "pause units received, count"
scalar Scenario.client.eth[0].mac 	rxPausePkUnits:sum 	0
attr interpolationmode  none
attr title  "pause units received, sum"
scalar Scenario.client.eth[0].mac 	txPausePkUnits:count 	0
attr interpolationmode  none
attr title  "pause units sent, count"
scalar Scenario.client.eth[0].mac 	txPausePkUnits:sum 	0
attr interpolationmode  none
attr title  "pause units sent, sum"
scalar Scenario.client.eth[0].mac 	rxPkOk:count 	1
attr interpolationmode  none
attr source  rxPkOk
attr title  "packets received OK, count"
scalar Scenario.client.eth[0].mac 	rxPkOk:sum(packetBytes) 	64
attr interpolationmode  none
attr source  rxPkOk
attr title  "packets received OK, sum(packetBytes)"
scalar Scenario.client.eth[0].mac 	txPk:count 	450
attr interpolationmode  none
attr source  txPk
attr title  "packets transmitted, count"
scalar Scenario.client.eth[0].mac 	txPk:sum(packetBytes) 	581968
attr interpolationmode  none
attr source  txPk
attr title  "packets transmitted, sum(packetBytes)"
scalar Scenario.client.eth[0].mac 	passedUpPk:count 	1
attr interpolationmode  none
attr source  packetSentToUpper
attr title  "packets passed to higher layer, count"
scalar Scenario.client.eth[0].mac 	passedUpPk:sum(packetBytes) 	64
attr interpolationmode  none
attr source  packetSentToUpper
attr title  "packets passed to higher layer, sum(packetBytes)"
scalar Scenario.client.eth[0].encap 	pauseSent:count 	0
attr title  "pause sent, count"
scalar Scenario.client.eth[0].encap 	pauseSent:sum 	0
attr title  "pause sent, sum"
scalar Scenario.client.eth[0].encap 	decapPk:count 	1
attr interpolationmode  none
attr source  decapPk
attr title  "packets decapsulated, count"
scalar Scenario.client.eth[0].encap 	decapPk:sum(packetBytes) 	28
attr interpolationmode  none
attr source  decapPk
attr title  "packets decapsulated, sum(packetBytes)"
scalar Scenario.client.eth[0].encap 	encapPk:count 	450
attr interpolationmode  none
attr source  encapPk
attr title  "packets encapsulated, count"
scalar Scenario.client.eth[0].encap 	encapPk:sum(packetBytes) 	573850
attr interpolationmode  none
attr source  encapPk
attr title  "packets encapsulated, sum(packetBytes)"
scalar Scenario.client.udpApp[0] 	"packets sent" 	449
scalar Scenario.client.udpApp[0] 	"packets received" 	0
scalar Scenario.client.udpApp[0] 	rcvdPk:count 	0
attr interpolationmode  none
attr source  rcvdPk
attr title  "packets received, count"
scalar Scenario.client.udpApp[0] 	rcvdPk:sum(packetBytes) 	0
attr interpolationmode  none
attr source  rcvdPk
attr title  "packets received, sum(packetBytes)"
statistic Scenario.client.udpApp[0] 	rcvdPkLifetime:stats
field count 0
field mean -nan
field stddev -nan
field sum 0
field sqrsum 0
field min -nan
field max -nan
attr interpolationmode  none
attr source  messageAge(rcvdPk)
attr title  "received packet lifetime, stats"
attr unit  s
scalar Scenario.client.udpApp[0] 	sentPk:count 	449
attr interpolationmode  none
attr source  sentPk
attr title  "packets sent, count"
scalar Scenario.client.udpApp[0] 	sentPk:sum(packetBytes) 	561250
attr interpolationmode  none
attr source  sentPk
attr title  "packets sent, sum(packetBytes)"
scalar Scenario.client.udp 	droppedPkBadChecksum:count 	0
attr interpolationmode  none
attr title  "packets dropped (checksum error), count"
scalar Scenario.client.udp 	droppedPkWrongPort:count 	0
attr interpolationmode  none
attr title  "packets dropped (wrong port), count"
scalar Scenario.client.udp 	passedUpPk:count 	0
attr interpolationmode  none
attr title  "packets passed up, count"
scalar Scenario.client.udp 	rcvdPk:count 	0
attr interpolationmode  none
attr source  rcvdPk
attr title  "packets received, count"
scalar Scenario.client.udp 	rcvdPk:sum(packetBytes) 	0
attr interpolationmode  none
attr source  rcvdPk
attr title  "packets received, sum(packetBytes)"
scalar Scenario.client.udp 	sentPk:count 	449
attr interpolationmode  none
attr source  sentPk
attr title  "packets sent, count"
scalar Scenario.client.udp 	sentPk:sum(packetBytes) 	564842
attr interpolationmode  none
attr source  sentPk
attr title  "packets sent, sum(packetBytes)"
scalar Scenario.server.networkLayer.arp 	failedARPResolution:count 	0
attr title  "ARP failed resolutions, count"
scalar Scenario.server.networkLayer.arp 	completedARPResolution:count 	1
attr title  "ARP completed resolutions, count"
scalar Scenario.server.networkLayer.arp 	initiatedARPResolution:count 	0
attr title  "ARP initiated resolutions, count"
scalar Scenario.server.networkLayer.arp 	sentReply:count 	1
attr title  "ARP replies sent, count"
scalar Scenario.server.networkLayer.arp 	sentReq:count 	0
attr title  "ARP request sent, count"
scalar Scenario.server.lo0.lo 	droppedPkBitError:count 	0
attr interpolationmode  none
attr source  dropPkBitError
attr title  "packets dropped/bit error, count"
scalar Scenario.server.lo0.lo 	droppedPkBitError:sum(packetBytes) 	0
attr interpolationmode  none
attr source  dropPkBitError
attr title  "packets dropped/bit error, sum(packetBytes)"
scalar Scenario.server.lo0.lo 	rcvdPkFromHL:count 	0
attr interpolationmode  none
attr source  packetReceivedFromUpper
attr title  "packets received from higher layer, count"
scalar Scenario.server.lo0.lo 	rcvdPkFromHL:sum(packetBytes) 	0
attr interpolationmode  none
attr source  packetReceivedFromUpper
attr title  "packets received from higher layer, sum(packetBytes)"
scalar Scenario.server.lo0.lo 	passedUpPk:count 	0
attr interpolationmode  none
attr source  packetSentToUpper
attr title  "packets passed to higher layer, count"
scalar Scenario.server.lo0.lo 	passedUpPk:sum(packetBytes) 	0
attr interpolationmode  none
attr source  packetSentToUpper
attr title  "packets passed to higher layer, sum(packetBytes)"
scalar Scenario.server.eth[0].mac 	"simulated time" 	90
scalar Scenario.server.eth[0].mac 	full-duplex 	1
scalar Scenario.server.eth[0].mac 	"frames/sec sent" 	0.011111111111111
scalar Scenario.server.eth[0].mac 	"frames/sec rcvd" 	5
scalar Scenario.server.eth[0].mac 	"bits/sec sent" 	5.6888888888889
scalar Scenario.server.eth[0].mac 	"bits/sec rcvd" 	51730.488888889
scalar Scenario.server.eth[0].mac 	"rx channel idle (%)" 	99.947949511111
scalar Scenario.server.eth[0].mac 	"rx channel utilization (%)" 	0.052050488888889
scalar Scenario.server.eth[0].mac 	droppedPkNotForUs:count 	0
attr interpolationmode  none
attr source  dropPkNotForUs
attr title  "packets dropped/not for us, count"
scalar Scenario.server.eth[0].mac 	droppedPkNotForUs:sum(packetBytes) 	0
attr interpolationmode  none
attr source  dropPkNotForUs
attr title  "packets dropped/not for us, sum(packetBytes)"
scalar Scenario.server.eth[0].mac 	droppedPkIfaceDown:count 	0
attr interpolationmode  none
attr source  dropPkIfaceDown
attr title  "packets dropped/interface down, count"
scalar Scenario.server.eth[0].mac 	droppedPkIfaceDown:sum(packetBytes) 	0
attr interpolationmode  none
attr source  dropPkIfaceDown
attr title  "packets dropped/interface down, sum(packetBytes)"
scalar Scenario.server.eth[0].mac 	droppedPkBitError:count 	0
attr interpolationmode  none
attr source  dropPkBitError
attr title  "packets dropped/bit error, count"
scalar Scenario.server.eth[0].mac 	droppedPkBitError:sum(packetBytes) 	0
attr interpolationmode  none
attr source  dropPkBitError
attr title  "packets dropped/bit error, sum(packetBytes)"
scalar Scenario.server.eth[0].mac 	rxPkFromHL:count 	1
attr interpolationmode  none
attr source  rxPkFromHL
attr title  "packet bytes from higher layer, count"
scalar Scenario.server.eth[0].mac 	rxPkFromHL:sum(packetBytes) 	64
attr interpolationmode  none
attr source  rxPkFromHL
attr title  "packet bytes from higher layer, sum(packetBytes)"
scalar Scenario.server.eth[0].mac 	rxPausePkUnits:count 	0
attr interpolationmode  none
attr title  "pause units received, count"
scalar Scenario.server.eth[0].mac 	rxPausePkUnits:sum 	0
attr interpolationmode  none
attr title  "pause units received, sum"
scalar Scenario.server.eth[0].mac 	txPausePkUnits:count 	0
attr interpolationmode  none
attr title  "pause units sent, count"
scalar Scenario.server.eth[0].mac 	txPausePkUnits:sum 	0
attr interpolationmode  none
attr title  "pause units sent, sum"
scalar Scenario.server.eth[0].mac 	rxPkOk:count 	450
attr interpolationmode  none
attr source  rxPkOk
attr title  "packets received OK, count"
scalar Scenario.server.eth[0].mac 	rxPkOk:sum(packetBytes) 	581968
attr interpolationmode  none
attr source  rxPkOk
attr title  "packets received OK, sum(packetBytes)"
scalar Scenario.server.eth[0].mac 	txPk:count 	1
attr interpolationmode  none
attr source  txPk
attr title  "packets transmitted, count"
scalar Scenario.server.eth[0].mac 	txPk:sum(packetBytes) 	64
attr interpolationmode  none
attr source  txPk
attr title  "packets transmitted, sum(packetBytes)"
scalar Scenario.server.eth[0].mac 	passedUpPk:count 	450
attr interpolationmode  none
attr source  packetSentToUpper
attr title  "packets passed to higher layer, count"
scalar Scenario.server.eth[0].mac 	passedUpPk:sum(packetBytes) 	581968
attr interpolationmode  none
attr source  packetSentToUpper
attr title  "packets passed to higher layer, sum(packetBytes)"
scalar Scenario.server.eth[0].encap 	pauseSent:count 	0
attr title  "pause sent, count"
scalar Scenario.server.eth[0].encap 	pauseSent:sum 	0
attr title  "pause sent, sum"
scalar Scenario.server.eth[0].encap 	decapPk:count 	450
attr interpolationmode  none
attr source  decapPk
attr title  "packets decapsulated, count"
scalar Scenario.server.eth[0].encap 	decapPk:sum(packetBytes) 	573850
attr interpolationmode  none
attr source  decapPk
attr title  "packets decapsulated, sum(packetBytes)"
scalar Scenario.server.eth[0].encap 	encapPk:count 	1
attr interpolationmode  none
attr source  encapPk
attr title  "packets encapsulated, count"
scalar Scenario.server.eth[0].encap 	encapPk:sum(packetBytes) 	28
attr interpolationmode  none
attr source  encapPk
attr title  "packets encapsulated, sum(packetBytes)"
scalar Scenario.server.udpApp[0] 	rcvdPk:count 	449
attr interpolationmode  none
attr source  rcvdPk
attr title  "packets received, count"
scalar Scenario.server.udpApp[0] 	rcvdPk:sum(packetBytes) 	561250
attr interpolationmode  none
attr source  rcvdPk
attr title  "packets received, sum(packetBytes)"
scalar Scenario.server.udp 	droppedPkBadChecksum:count 	0
attr interpolationmode  none
attr title  "packets dropped (checksum error), count"
scalar Scenario.server.udp 	droppedPkWrongPort:count 	0
attr interpolationmode  none
attr title  "packets dropped (wrong port), count"
scalar Scenario.server.udp 	passedUpPk:count 	449
attr interpolationmode  none
attr title  "packets passed up, count"
scalar Scenario.server.udp 	rcvdPk:count 	449
attr interpolationmode  none
attr source  rcvdPk
attr title  "packets received, count"
scalar Scenario.server.udp 	rcvdPk:sum(packetBytes) 	564842
attr interpolationmode  none
attr source  rcvdPk
attr title  "packets received, sum(packetBytes)"
scalar Scenario.server.udp 	sentPk:count 	0
attr interpolationmode  none
attr source  sentPk
attr title  "packets sent, count"
scalar Scenario.server.udp 	sentPk:sum(packetBytes) 	0
attr interpolationmode  none
attr source  sentPk
attr title  "packets sent, sum(packetBytes)"
scalar Scenario.open_flow_switch.networkLayer.arp 	failedARPResolution:count 	0
attr title  "ARP failed resolutions, count"
scalar Scenario.open_flow_switch.networkLayer.arp 	completedARPResolution:count 	1
attr title  "ARP completed resolutions, count"
scalar Scenario.open_flow_switch.networkLayer.arp 	initiatedARPResolution:count 	1
attr title  "ARP initiated resolutions, count"
scalar Scenario.open_flow_switch.networkLayer.arp 	sentReply:count 	0
attr title  "ARP replies sent, count"
scalar Scenario.open_flow_switch.networkLayer.arp 	sentReq:count 	1
attr title  "ARP request sent, count"
scalar Scenario.open_flow_switch.eth[0].mac 	"simulated time" 	90
scalar Scenario.open_flow_switch.eth[0].mac 	full-duplex 	1
scalar Scenario.open_flow_switch.eth[0].mac 	"frames/sec sent" 	0.32222222222222
scalar Scenario.open_flow_switch.eth[0].mac 	"frames/sec rcvd" 	0.31111111111111
scalar Scenario.open_flow_switch.eth[0].mac 	"bits/sec sent" 	289.15555555556
scalar Scenario.open_flow_switch.eth[0].mac 	"bits/sec rcvd" 	283.46666666667
scalar Scenario.open_flow_switch.eth[0].mac 	"rx channel idle (%)" 	99.999696622222
scalar Scenario.open_flow_switch.eth[0].mac 	"rx channel utilization (%)" 	0.00030337777777778
scalar Scenario.open_flow_switch.eth[0].mac 	droppedPkNotForUs:count 	0
attr interpolationmode  none
attr source  dropPkNotForUs
attr title  "packets dropped/not for us, count"
scalar Scenario.open_flow_switch.eth[0].mac 	droppedPkNotForUs:sum(packetBytes) 	0
attr interpolationmode  none
attr source  dropPkNotForUs
attr title  "packets dropped/not for us, sum(packetBytes)"
scalar Scenario.open_flow_switch.eth[0].mac 	droppedPkIfaceDown:count 	0
attr interpolationmode  none
attr source  dropPkIfaceDown
attr title  "packets dropped/interface down, count"
scalar Scenario.open_flow_switch.eth[0].mac 	droppedPkIfaceDown:sum(packetBytes) 	0
attr interpolationmode  none
attr source  dropPkIfaceDown
attr title  "packets dropped/interface down, sum(packetBytes)"
scalar Scenario.open_flow_switch.eth[0].mac 	droppedPkBitError:count 	0
attr interpolationmode  none
attr source  dropPkBitError
attr title  "packets dropped/bit error, count"
scalar Scenario.open_flow_switch.eth[0].mac 	droppedPkBitError:sum(packetBytes) 	0
attr interpolationmode  none
attr source  dropPkBitError
attr title  "packets dropped/bit error, sum(packetBytes)"
scalar Scenario.open_flow_switch.eth[0].mac 	rxPkFromHL:count 	29
attr interpolationmode  none
attr source  rxPkFromHL
attr title  "packet bytes from higher layer, count"
scalar Scenario.open_flow_switch.eth[0].mac 	rxPkFromHL:sum(packetBytes) 	3253
attr interpolationmode  none
attr source  rxPkFromHL
attr title  "packet bytes from higher layer, sum(packetBytes)"
scalar Scenario.open_flow_switch.eth[0].mac 	rxPausePkUnits:count 	0
attr interpolationmode  none
attr title  "pause units received, count"
scalar Scenario.open_flow_switch.eth[0].mac 	rxPausePkUnits:sum 	0
attr interpolationmode  none
attr title  "pause units received, sum"
scalar Scenario.open_flow_switch.eth[0].mac 	txPausePkUnits:count 	0
attr interpolationmode  none
attr title  "pause units sent, count"
scalar Scenario.open_flow_switch.eth[0].mac 	txPausePkUnits:sum 	0
attr interpolationmode  none
attr title  "pause units sent, sum"
scalar Scenario.open_flow_switch.eth[0].mac 	rxPkOk:count 	28
attr interpolationmode  none
attr source  rxPkOk
attr title  "packets received OK, count"
scalar Scenario.open_flow_switch.eth[0].mac 	rxPkOk:sum(packetBytes) 	3189
attr interpolationmode  none
attr source  rxPkOk
attr title  "packets received OK, sum(packetBytes)"
scalar Scenario.open_flow_switch.eth[0].mac 	txPk:count 	29
attr interpolationmode  none
attr source  txPk
attr title  "packets transmitted, count"
scalar Scenario.open_flow_switch.eth[0].mac 	txPk:sum(packetBytes) 	3253
attr interpolationmode  none
attr source  txPk
attr title  "packets transmitted, sum(packetBytes)"
scalar Scenario.open_flow_switch.eth[0].mac 	passedUpPk:count 	28
attr interpolationmode  none
attr source  packetSentToUpper
attr title  "packets passed to higher layer, count"
scalar Scenario.open_flow_switch.eth[0].mac 	passedUpPk:sum(packetBytes) 	3189
attr interpolationmode  none
attr source  packetSentToUpper
attr title  "packets passed to higher layer, sum(packetBytes)"
scalar Scenario.open_flow_switch.eth[0].encap 	pauseSent:count 	0
attr title  "pause sent, count"
scalar Scenario.open_flow_switch.eth[0].encap 	pauseSent:sum 	0
attr title  "pause sent, sum"
scalar Scenario.open_flow_switch.eth[0].encap 	decapPk:count 	28
attr interpolationmode  none
attr source  decapPk
attr title  "packets decapsulated, count"
scalar Scenario.open_flow_switch.eth[0].encap 	decapPk:sum(packetBytes) 	2547
attr interpolationmode  none
attr source  decapPk
attr title  "packets decapsulated, sum(packetBytes)"
scalar Scenario.open_flow_switch.eth[0].encap 	encapPk:count 	29
attr interpolationmode  none
attr source  encapPk
attr title  "packets encapsulated, count"
scalar Scenario.open_flow_switch.eth[0].encap 	encapPk:sum(packetBytes) 	2587
attr interpolationmode  none
attr source  encapPk
attr title  "packets encapsulated, sum(packetBytes)"
scalar Scenario.open_flow_switch.etherMAC[0] 	"simulated time" 	90
scalar Scenario.open_flow_switch.etherMAC[0] 	full-duplex 	1
scalar Scenario.open_flow_switch.etherMAC[0] 	"frames/sec sent" 	0.011111111111111
scalar Scenario.open_flow_switch.etherMAC[0] 	"frames/sec rcvd" 	5
scalar Scenario.open_flow_switch.etherMAC[0] 	"bits/sec sent" 	5.6888888888889
scalar Scenario.open_flow_switch.etherMAC[0] 	"bits/sec rcvd" 	51730.488888889
scalar Scenario.open_flow_switch.etherMAC[0] 	"rx channel idle (%)" 	99.947949511111
scalar Scenario.open_flow_switch.etherMAC[0] 	"rx channel utilization (%)" 	0.052050488888889
scalar Scenario.open_flow_switch.etherMAC[0] 	"rx channel collision (%)" 	0
scalar Scenario.open_flow_switch.etherMAC[0] 	collisions 	0
scalar Scenario.open_flow_switch.etherMAC[0] 	backoffs 	0
scalar Scenario.open_flow_switch.etherMAC[0] 	droppedPkNotForUs:count 	0
attr interpolationmode  none
attr source  dropPkNotForUs
attr title  "packets dropped/not for us, count"
scalar Scenario.open_flow_switch.etherMAC[0] 	droppedPkNotForUs:sum(packetBytes) 	0
attr interpolationmode  none
attr source  dropPkNotForUs
attr title  "packets dropped/not for us, sum(packetBytes)"
scalar Scenario.open_flow_switch.etherMAC[0] 	droppedPkIfaceDown:count 	0
attr interpolationmode  none
attr source  dropPkIfaceDown
attr title  "packets dropped/interface down, count"
scalar Scenario.open_flow_switch.etherMAC[0] 	droppedPkIfaceDown:sum(packetBytes) 	0
attr interpolationmode  none
attr source  dropPkIfaceDown
attr title  "packets dropped/interface down, sum(packetBytes)"
scalar Scenario.open_flow_switch.etherMAC[0] 	droppedPkBitError:count 	0
attr interpolationmode  none
attr source  dropPkBitError
attr title  "packets dropped/bit error, count"
scalar Scenario.open_flow_switch.etherMAC[0] 	droppedPkBitError:sum(packetBytes) 	0
attr interpolationmode  none
attr source  dropPkBitError
attr title  "packets dropped/bit error, sum(packetBytes)"
scalar Scenario.open_flow_switch.etherMAC[0] 	rxPkFromHL:count 	1
attr interpolationmode  none
attr source  rxPkFromHL
attr title  "packet bytes from higher layer, count"
scalar Scenario.open_flow_switch.etherMAC[0] 	rxPkFromHL:sum(packetBytes) 	64
attr interpolationmode  none
attr source  rxPkFromHL
attr title  "packet bytes from higher layer, sum(packetBytes)"
scalar Scenario.open_flow_switch.etherMAC[0] 	rxPausePkUnits:count 	0
attr interpolationmode  none
attr title  "pause units received, count"
scalar Scenario.open_flow_switch.etherMAC[0] 	rxPausePkUnits:sum 	0
attr interpolationmode  none
attr title  "pause units received, sum"
scalar Scenario.open_flow_switch.etherMAC[0] 	txPausePkUnits:count 	0
attr interpolationmode  none
attr title  "pause units sent, count"
scalar Scenario.open_flow_switch.etherMAC[0] 	txPausePkUnits:sum 	0
attr interpolationmode  none
attr title  "pause units sent, sum"
scalar Scenario.open_flow_switch.etherMAC[0] 	rxPkOk:count 	450
attr interpolationmode  none
attr source  rxPkOk
attr title  "packets received OK, count"
scalar Scenario.open_flow_switch.etherMAC[0] 	rxPkOk:sum(packetBytes) 	581968
attr interpolationmode  none
attr source  rxPkOk
attr title  "packets received OK, sum(packetBytes)"
scalar Scenario.open_flow_switch.etherMAC[0] 	txPk:count 	1
attr interpolationmode  none
attr source  txPk
attr title  "packets transmitted, count"
scalar Scenario.open_flow_switch.etherMAC[0] 	txPk:sum(packetBytes) 	64
attr interpolationmode  none
attr source  txPk
attr title  "packets transmitted, sum(packetBytes)"
scalar Scenario.open_flow_switch.etherMAC[0] 	backoff:count 	0
attr interpolationmode  none
attr title  "backoff, count"
scalar Scenario.open_flow_switch.etherMAC[0] 	collision:count 	0
attr interpolationmode  none
attr title  "collision, count"
scalar Scenario.open_flow_switch.etherMAC[0] 	passedUpPk:count 	450
attr interpolationmode  none
attr source  packetSentToUpper
attr title  "packets passed to higher layer, count"
scalar Scenario.open_flow_switch.etherMAC[0] 	passedUpPk:sum(packetBytes) 	581968
attr interpolationmode  none
attr source  packetSentToUpper
attr title  "packets passed to higher layer, sum(packetBytes)"
scalar Scenario.open_flow_switch.etherMAC[1] 	"simulated time" 	90
scalar Scenario.open_flow_switch.etherMAC[1] 	full-duplex 	1
scalar Scenario.open_flow_switch.etherMAC[1] 	"frames/sec sent" 	5
scalar Scenario.open_flow_switch.etherMAC[1] 	"frames/sec rcvd" 	0.011111111111111
scalar Scenario.open_flow_switch.etherMAC[1] 	"bits/sec sent" 	51730.488888889
scalar Scenario.open_flow_switch.etherMAC[1] 	"bits/sec rcvd" 	5.6888888888889
scalar Scenario.open_flow_switch.etherMAC[1] 	"rx channel idle (%)" 	99.9999936
scalar Scenario.open_flow_switch.etherMAC[1] 	"rx channel utilization (%)" 	6.4e-06
scalar Scenario.open_flow_switch.etherMAC[1] 	"rx channel collision (%)" 	0
scalar Scenario.open_flow_switch.etherMAC[1] 	collisions 	0
scalar Scenario.open_flow_switch.etherMAC[1] 	backoffs 	0
scalar Scenario.open_flow_switch.etherMAC[1] 	droppedPkNotForUs:count 	0
attr interpolationmode  none
attr source  dropPkNotForUs
attr title  "packets dropped/not for us, count"
scalar Scenario.open_flow_switch.etherMAC[1] 	droppedPkNotForUs:sum(packetBytes) 	0
attr interpolationmode  none
attr source  dropPkNotForUs
attr title  "packets dropped/not for us, sum(packetBytes)"
scalar Scenario.open_flow_switch.etherMAC[1] 	droppedPkIfaceDown:count 	0
attr interpolationmode  none
attr source  dropPkIfaceDown
attr title  "packets dropped/interface down, count"
scalar Scenario.open_flow_switch.etherMAC[1] 	droppedPkIfaceDown:sum(packetBytes) 	0
attr interpolationmode  none
attr source  dropPkIfaceDown
attr title  "packets dropped/interface down, sum(packetBytes)"
scalar Scenario.open_flow_switch.etherMAC[1] 	droppedPkBitError:count 	0
attr interpolationmode  none
attr source  dropPkBitError
attr title  "packets dropped/bit error, count"
scalar Scenario.open_flow_switch.etherMAC[1] 	droppedPkBitError:sum(packetBytes) 	0
attr interpolationmode  none
attr source  dropPkBitError
attr title  "packets dropped/bit error, sum(packetBytes)"
scalar Scenario.open_flow_switch.etherMAC[1] 	rxPkFromHL:count 	450
attr interpolationmode  none
attr source  rxPkFromHL
attr title  "packet bytes from higher layer, count"
scalar Scenario.open_flow_switch.etherMAC[1] 	rxPkFromHL:sum(packetBytes) 	581968
attr interpolationmode  none
attr source  rxPkFromHL
attr title  "packet bytes from higher layer, sum(packetBytes)"
scalar Scenario.open_flow_switch.etherMAC[1] 	rxPausePkUnits:count 	0
attr interpolationmode  none
attr title  "pause units received, count"
scalar Scenario.open_flow_switch.etherMAC[1] 	rxPausePkUnits:sum 	0
attr interpolationmode  none
attr title  "pause units received, sum"
scalar Scenario.open_flow_switch.etherMAC[1] 	txPausePkUnits:count 	0
attr interpolationmode  none
attr title  "pause units sent, count"
scalar Scenario.open_flow_switch.etherMAC[1] 	txPausePkUnits:sum 	0
attr interpolationmode  none
attr title  "pause units sent, sum"
scalar Scenario.open_flow_switch.etherMAC[1] 	rxPkOk:count 	1
attr interpolationmode  none
attr source  rxPkOk
attr title  "packets received OK, count"
scalar Scenario.open_flow_switch.etherMAC[1] 	rxPkOk:sum(packetBytes) 	64
attr interpolationmode  none
attr source  rxPkOk
attr title  "packets received OK, sum(packetBytes)"
scalar Scenario.open_flow_switch.etherMAC[1] 	txPk:count 	450
attr interpolationmode  none
attr source  txPk
attr title  "packets transmitted, count"
scalar Scenario.open_flow_switch.etherMAC[1] 	txPk:sum(packetBytes) 	581968
attr interpolationmode  none
attr source  txPk
attr title  "packets transmitted, sum(packetBytes)"
scalar Scenario.open_flow_switch.etherMAC[1] 	backoff:count 	0
attr interpolationmode  none
attr title  "backoff, count"
scalar Scenario.open_flow_switch.etherMAC[1] 	collision:count 	0
attr interpolationmode  none
attr title  "collision, count"
scalar Scenario.open_flow_switch.etherMAC[1] 	passedUpPk:count 	1
attr interpolationmode  none
attr source  packetSentToUpper
attr title  "packets passed to higher layer, count"
scalar Scenario.open_flow_switch.etherMAC[1] 	passedUpPk:sum(packetBytes) 	64
attr interpolationmode  none
attr source  packetSentToUpper
attr title  "packets passed to higher layer, sum(packetBytes)"
scalar Scenario.open_flow_switch.open_Flow_Processing 	droppedPkt:last 	-nan
attr source  droppedPkt
scalar Scenario.controller.networkLayer.arp 	failedARPResolution:count 	0
attr title  "ARP failed resolutions, count"
scalar Scenario.controller.networkLayer.arp 	completedARPResolution:count 	1
attr title  "ARP completed resolutions, count"
scalar Scenario.controller.networkLayer.arp 	initiatedARPResolution:count 	0
attr title  "ARP initiated resolutions, count"
scalar Scenario.controller.networkLayer.arp 	sentReply:count 	1
attr title  "ARP replies sent, count"
scalar Scenario.controller.networkLayer.arp 	sentReq:count 	0
attr title  "ARP request sent, count"
scalar Scenario.controller.lo0.lo 	droppedPkBitError:count 	0
attr interpolationmode  none
attr source  dropPkBitError
attr title  "packets dropped/bit error, count"
scalar Scenario.controller.lo0.lo 	droppedPkBitError:sum(packetBytes) 	0
attr interpolationmode  none
attr source  dropPkBitError
attr title  "packets dropped/bit error, sum(packetBytes)"
scalar Scenario.controller.lo0.lo 	rcvdPkFromHL:count 	0
attr interpolationmode  none
attr source  packetReceivedFromUpper
attr title  "packets received from higher layer, count"
scalar Scenario.controller.lo0.lo 	rcvdPkFromHL:sum(packetBytes) 	0
attr interpolationmode  none
attr source  packetReceivedFromUpper
attr title  "packets received from higher layer, sum(packetBytes)"
scalar Scenario.controller.lo0.lo 	passedUpPk:count 	0
attr interpolationmode  none
attr source  packetSentToUpper
attr title  "packets passed to higher layer, count"
scalar Scenario.controller.lo0.lo 	passedUpPk:sum(packetBytes) 	0
attr interpolationmode  none
attr source  packetSentToUpper
attr title  "packets passed to higher layer, sum(packetBytes)"
scalar Scenario.controller.eth[0].mac 	"simulated time" 	90
scalar Scenario.controller.eth[0].mac 	full-duplex 	1
scalar Scenario.controller.eth[0].mac 	"frames/sec sent" 	0.31111111111111
scalar Scenario.controller.eth[0].mac 	"frames/sec rcvd" 	0.32222222222222
scalar Scenario.controller.eth[0].mac 	"bits/sec sent" 	283.46666666667
scalar Scenario.controller.eth[0].mac 	"bits/sec rcvd" 	289.15555555556
scalar Scenario.controller.eth[0].mac 	"rx channel idle (%)" 	99.999690222222
scalar Scenario.controller.eth[0].mac 	"rx channel utilization (%)" 	0.00030977777777778
scalar Scenario.controller.eth[0].mac 	droppedPkNotForUs:count 	0
attr interpolationmode  none
attr source  dropPkNotForUs
attr title  "packets dropped/not for us, count"
scalar Scenario.controller.eth[0].mac 	droppedPkNotForUs:sum(packetBytes) 	0
attr interpolationmode  none
attr source  dropPkNotForUs
attr title  "packets dropped/not for us, sum(packetBytes)"
scalar Scenario.controller.eth[0].mac 	droppedPkIfaceDown:count 	0
attr interpolationmode  none
attr source  dropPkIfaceDown
attr title  "packets dropped/interface down, count"
scalar Scenario.controller.eth[0].mac 	droppedPkIfaceDown:sum(packetBytes) 	0
attr interpolationmode  none
attr source  dropPkIfaceDown
attr title  "packets dropped/interface down, sum(packetBytes)"
scalar Scenario.controller.eth[0].mac 	droppedPkBitError:count 	0
attr interpolationmode  none
attr source  dropPkBitError
attr title  "packets dropped/bit error, count"
scalar Scenario.controller.eth[0].mac 	droppedPkBitError:sum(packetBytes) 	0
attr interpolationmode  none
attr source  dropPkBitError
attr title  "packets dropped/bit error, sum(packetBytes)"
scalar Scenario.controller.eth[0].mac 	rxPkFromHL:count 	28
attr interpolationmode  none
attr source  rxPkFromHL
attr title  "packet bytes from higher layer, count"
scalar Scenario.controller.eth[0].mac 	rxPkFromHL:sum(packetBytes) 	3189
attr interpolationmode  none
attr source  rxPkFromHL
attr title  "packet bytes from higher layer, sum(packetBytes)"
scalar Scenario.controller.eth[0].mac 	rxPausePkUnits:count 	0
attr interpolationmode  none
attr title  "pause units received, count"
scalar Scenario.controller.eth[0].mac 	rxPausePkUnits:sum 	0
attr interpolationmode  none
attr title  "pause units received, sum"
scalar Scenario.controller.eth[0].mac 	txPausePkUnits:count 	0
attr interpolationmode  none
attr title  "pause units sent, count"
scalar Scenario.controller.eth[0].mac 	txPausePkUnits:sum 	0
attr interpolationmode  none
attr title  "pause units sent, sum"
scalar Scenario.controller.eth[0].mac 	rxPkOk:count 	29
attr interpolationmode  none
attr source  rxPkOk
attr title  "packets received OK, count"
scalar Scenario.controller.eth[0].mac 	rxPkOk:sum(packetBytes) 	3253
attr interpolationmode  none
attr source  rxPkOk
attr title  "packets received OK, sum(packetBytes)"
scalar Scenario.controller.eth[0].mac 	txPk:count 	28
attr interpolationmode  none
attr source  txPk
attr title  "packets transmitted, count"
scalar Scenario.controller.eth[0].mac 	txPk:sum(packetBytes) 	3189
attr interpolationmode  none
attr source  txPk
attr title  "packets transmitted, sum(packetBytes)"
scalar Scenario.controller.eth[0].mac 	passedUpPk:count 	29
attr interpolationmode  none
attr source  packetSentToUpper
attr title  "packets passed to higher layer, count"
scalar Scenario.controller.eth[0].mac 	passedUpPk:sum(packetBytes) 	3253
attr interpolationmode  none
attr source  packetSentToUpper
attr title  "packets passed to higher layer, sum(packetBytes)"
scalar Scenario.controller.eth[0].encap 	pauseSent:count 	0
attr title  "pause sent, count"
scalar Scenario.controller.eth[0].encap 	pauseSent:sum 	0
attr title  "pause sent, sum"
scalar Scenario.controller.eth[0].encap 	decapPk:count 	29
attr interpolationmode  none
attr source  decapPk
attr title  "packets decapsulated, count"
scalar Scenario.controller.eth[0].encap 	decapPk:sum(packetBytes) 	2587
attr interpolationmode  none
attr source  decapPk
attr title  "packets decapsulated, sum(packetBytes)"
scalar Scenario.controller.eth[0].encap 	encapPk:count 	28
attr interpolationmode  none
attr source  encapPk
attr title  "packets encapsulated, count"
scalar Scenario.controller.eth[0].encap 	encapPk:sum(packetBytes) 	2547
attr interpolationmode  none
attr source  encapPk
attr title  "packets encapsulated, sum(packetBytes)"
statistic Scenario.controller.entropy 	entropy:stats
field count 5
field mean -9.3445536837014
field stddev 0.068764978450184
field sum -46.722768418507
field sqrsum 436.62233222693
field min -9.3753063169585
field max -9.2215431506728
attr source  entropy
attr title  "Entropy Value, stats"
