version 2
run Simple_attack-0-20160826-10:49:17-9541
attr configname Simple_attack
attr datetime 20160826-10:49:17
attr experiment Simple_attack
attr inifile omnetpp.ini
attr iterationvars ""
attr iterationvars2 $repetition=0
attr measurement ""
attr network Scenario
attr processid 9541
attr repetition 0
attr replication #0
attr resultdir results
attr runnumber 0
attr seedset 0

scalar Scenario.client.networkLayer.arp 	failedARPResolution:count 	0
attr title  "ARP failed resolutions, count"
scalar Scenario.client.networkLayer.arp 	completedARPResolution:count 	2
attr title  "ARP completed resolutions, count"
scalar Scenario.client.networkLayer.arp 	initiatedARPResolution:count 	2
attr title  "ARP initiated resolutions, count"
scalar Scenario.client.networkLayer.arp 	sentReply:count 	0
attr title  "ARP replies sent, count"
scalar Scenario.client.networkLayer.arp 	sentReq:count 	2
attr title  "ARP request sent, count"
scalar Scenario.client.lo0.lo 	droppedPkBitError:count 	0
attr interpolationmode  none
attr source  dropPkBitError
attr title  "packets dropped/bit error, count"
scalar Scenario.client.lo0.lo 	droppedPkBitError:sum(packetBytes) 	0
attr interpolationmode  none
attr source  dropPkBitError
attr title  "packets dropped/bit error, sum(packetBytes)"
scalar Scenario.client.lo0.lo 	rcvdPkFromHL:count 	0
attr interpolationmode  none
attr source  packetReceivedFromUpper
attr title  "packets received from higher layer, count"
scalar Scenario.client.lo0.lo 	rcvdPkFromHL:sum(packetBytes) 	0
attr interpolationmode  none
attr source  packetReceivedFromUpper
attr title  "packets received from higher layer, sum(packetBytes)"
scalar Scenario.client.lo0.lo 	passedUpPk:count 	0
attr interpolationmode  none
attr source  packetSentToUpper
attr title  "packets passed to higher layer, count"
scalar Scenario.client.lo0.lo 	passedUpPk:sum(packetBytes) 	0
attr interpolationmode  none
attr source  packetSentToUpper
attr title  "packets passed to higher layer, sum(packetBytes)"
scalar Scenario.client.eth[0].mac 	"simulated time" 	150
scalar Scenario.client.eth[0].mac 	full-duplex 	1
scalar Scenario.client.eth[0].mac 	"frames/sec sent" 	45.006666666667
scalar Scenario.client.eth[0].mac 	"frames/sec rcvd" 	0.013333333333333
scalar Scenario.client.eth[0].mac 	"bits/sec sent" 	72257.706666667
scalar Scenario.client.eth[0].mac 	"bits/sec rcvd" 	6.8266666666667
scalar Scenario.client.eth[0].mac 	"rx channel idle (%)" 	99.99999232
scalar Scenario.client.eth[0].mac 	"rx channel utilization (%)" 	7.68e-06
scalar Scenario.client.eth[0].mac 	droppedPkNotForUs:count 	0
attr interpolationmode  none
attr source  dropPkNotForUs
attr title  "packets dropped/not for us, count"
scalar Scenario.client.eth[0].mac 	droppedPkNotForUs:sum(packetBytes) 	0
attr interpolationmode  none
attr source  dropPkNotForUs
attr title  "packets dropped/not for us, sum(packetBytes)"
scalar Scenario.client.eth[0].mac 	droppedPkIfaceDown:count 	0
attr interpolationmode  none
attr source  dropPkIfaceDown
attr title  "packets dropped/interface down, count"
scalar Scenario.client.eth[0].mac 	droppedPkIfaceDown:sum(packetBytes) 	0
attr interpolationmode  none
attr source  dropPkIfaceDown
attr title  "packets dropped/interface down, sum(packetBytes)"
scalar Scenario.client.eth[0].mac 	droppedPkBitError:count 	0
attr interpolationmode  none
attr source  dropPkBitError
attr title  "packets dropped/bit error, count"
scalar Scenario.client.eth[0].mac 	droppedPkBitError:sum(packetBytes) 	0
attr interpolationmode  none
attr source  dropPkBitError
attr title  "packets dropped/bit error, sum(packetBytes)"
scalar Scenario.client.eth[0].mac 	rxPkFromHL:count 	6752
attr interpolationmode  none
attr source  rxPkFromHL
attr title  "packet bytes from higher layer, count"
scalar Scenario.client.eth[0].mac 	rxPkFromHL:sum(packetBytes) 	1354896
attr interpolationmode  none
attr source  rxPkFromHL
attr title  "packet bytes from higher layer, sum(packetBytes)"
scalar Scenario.client.eth[0].mac 	rxPausePkUnits:count 	0
attr interpolationmode  none
attr title  "pause units received, count"
scalar Scenario.client.eth[0].mac 	rxPausePkUnits:sum 	0
attr interpolationmode  none
attr title  "pause units received, sum"
scalar Scenario.client.eth[0].mac 	txPausePkUnits:count 	0
attr interpolationmode  none
attr title  "pause units sent, count"
scalar Scenario.client.eth[0].mac 	txPausePkUnits:sum 	0
attr interpolationmode  none
attr title  "pause units sent, sum"
scalar Scenario.client.eth[0].mac 	rxPkOk:count 	2
attr interpolationmode  none
attr source  rxPkOk
attr title  "packets received OK, count"
scalar Scenario.client.eth[0].mac 	rxPkOk:sum(packetBytes) 	128
attr interpolationmode  none
attr source  rxPkOk
attr title  "packets received OK, sum(packetBytes)"
scalar Scenario.client.eth[0].mac 	txPk:count 	6751
attr interpolationmode  none
attr source  txPk
attr title  "packets transmitted, count"
scalar Scenario.client.eth[0].mac 	txPk:sum(packetBytes) 	1354832
attr interpolationmode  none
attr source  txPk
attr title  "packets transmitted, sum(packetBytes)"
scalar Scenario.client.eth[0].mac 	passedUpPk:count 	2
attr interpolationmode  none
attr source  packetSentToUpper
attr title  "packets passed to higher layer, count"
scalar Scenario.client.eth[0].mac 	passedUpPk:sum(packetBytes) 	128
attr interpolationmode  none
attr source  packetSentToUpper
attr title  "packets passed to higher layer, sum(packetBytes)"
scalar Scenario.client.eth[0].encap 	pauseSent:count 	0
attr title  "pause sent, count"
scalar Scenario.client.eth[0].encap 	pauseSent:sum 	0
attr title  "pause sent, sum"
scalar Scenario.client.eth[0].encap 	decapPk:count 	2
attr interpolationmode  none
attr source  decapPk
attr title  "packets decapsulated, count"
scalar Scenario.client.eth[0].encap 	decapPk:sum(packetBytes) 	56
attr interpolationmode  none
attr source  decapPk
attr title  "packets decapsulated, sum(packetBytes)"
scalar Scenario.client.eth[0].encap 	encapPk:count 	6752
attr interpolationmode  none
attr source  encapPk
attr title  "packets encapsulated, count"
scalar Scenario.client.eth[0].encap 	encapPk:sum(packetBytes) 	1125306
attr interpolationmode  none
attr source  encapPk
attr title  "packets encapsulated, sum(packetBytes)"
scalar Scenario.client.udpApp[0] 	"packets sent" 	749
scalar Scenario.client.udpApp[0] 	"packets received" 	0
scalar Scenario.client.udpApp[0] 	rcvdPk:count 	0
attr interpolationmode  none
attr source  rcvdPk
attr title  "packets received, count"
scalar Scenario.client.udpApp[0] 	rcvdPk:sum(packetBytes) 	0
attr interpolationmode  none
attr source  rcvdPk
attr title  "packets received, sum(packetBytes)"
statistic Scenario.client.udpApp[0] 	rcvdPkLifetime:stats
field count 0
field mean -nan
field stddev -nan
field sum 0
field sqrsum 0
field min -nan
field max -nan
attr interpolationmode  none
attr source  messageAge(rcvdPk)
attr title  "received packet lifetime, stats"
attr unit  s
scalar Scenario.client.udpApp[0] 	sentPk:count 	749
attr interpolationmode  none
attr source  sentPk
attr title  "packets sent, count"
scalar Scenario.client.udpApp[0] 	sentPk:sum(packetBytes) 	936250
attr interpolationmode  none
attr source  sentPk
attr title  "packets sent, sum(packetBytes)"
scalar Scenario.client.udp 	droppedPkBadChecksum:count 	0
attr interpolationmode  none
attr title  "packets dropped (checksum error), count"
scalar Scenario.client.udp 	droppedPkWrongPort:count 	0
attr interpolationmode  none
attr title  "packets dropped (wrong port), count"
scalar Scenario.client.udp 	passedUpPk:count 	0
attr interpolationmode  none
attr title  "packets passed up, count"
scalar Scenario.client.udp 	rcvdPk:count 	0
attr interpolationmode  none
attr source  rcvdPk
attr title  "packets received, count"
scalar Scenario.client.udp 	rcvdPk:sum(packetBytes) 	0
attr interpolationmode  none
attr source  rcvdPk
attr title  "packets received, sum(packetBytes)"
scalar Scenario.client.udp 	sentPk:count 	6750
attr interpolationmode  none
attr source  sentPk
attr title  "packets sent, count"
scalar Scenario.client.udp 	sentPk:sum(packetBytes) 	990250
attr interpolationmode  none
attr source  sentPk
attr title  "packets sent, sum(packetBytes)"
scalar Scenario.server.networkLayer.arp 	failedARPResolution:count 	0
attr title  "ARP failed resolutions, count"
scalar Scenario.server.networkLayer.arp 	completedARPResolution:count 	2
attr title  "ARP completed resolutions, count"
scalar Scenario.server.networkLayer.arp 	initiatedARPResolution:count 	0
attr title  "ARP initiated resolutions, count"
scalar Scenario.server.networkLayer.arp 	sentReply:count 	2
attr title  "ARP replies sent, count"
scalar Scenario.server.networkLayer.arp 	sentReq:count 	0
attr title  "ARP request sent, count"
scalar Scenario.server.lo0.lo 	droppedPkBitError:count 	0
attr interpolationmode  none
attr source  dropPkBitError
attr title  "packets dropped/bit error, count"
scalar Scenario.server.lo0.lo 	droppedPkBitError:sum(packetBytes) 	0
attr interpolationmode  none
attr source  dropPkBitError
attr title  "packets dropped/bit error, sum(packetBytes)"
scalar Scenario.server.lo0.lo 	rcvdPkFromHL:count 	0
attr interpolationmode  none
attr source  packetReceivedFromUpper
attr title  "packets received from higher layer, count"
scalar Scenario.server.lo0.lo 	rcvdPkFromHL:sum(packetBytes) 	0
attr interpolationmode  none
attr source  packetReceivedFromUpper
attr title  "packets received from higher layer, sum(packetBytes)"
scalar Scenario.server.lo0.lo 	passedUpPk:count 	0
attr interpolationmode  none
attr source  packetSentToUpper
attr title  "packets passed to higher layer, count"
scalar Scenario.server.lo0.lo 	passedUpPk:sum(packetBytes) 	0
attr interpolationmode  none
attr source  packetSentToUpper
attr title  "packets passed to higher layer, sum(packetBytes)"
scalar Scenario.server.eth[0].mac 	"simulated time" 	150
scalar Scenario.server.eth[0].mac 	full-duplex 	1
scalar Scenario.server.eth[0].mac 	"frames/sec sent" 	0.013333333333333
scalar Scenario.server.eth[0].mac 	"frames/sec rcvd" 	24.013333333333
scalar Scenario.server.eth[0].mac 	"bits/sec sent" 	6.8266666666667
scalar Scenario.server.eth[0].mac 	"bits/sec rcvd" 	51653.12
scalar Scenario.server.eth[0].mac 	"rx channel idle (%)" 	99.946810026667
scalar Scenario.server.eth[0].mac 	"rx channel utilization (%)" 	0.053189973333333
scalar Scenario.server.eth[0].mac 	droppedPkNotForUs:count 	0
attr interpolationmode  none
attr source  dropPkNotForUs
attr title  "packets dropped/not for us, count"
scalar Scenario.server.eth[0].mac 	droppedPkNotForUs:sum(packetBytes) 	0
attr interpolationmode  none
attr source  dropPkNotForUs
attr title  "packets dropped/not for us, sum(packetBytes)"
scalar Scenario.server.eth[0].mac 	droppedPkIfaceDown:count 	0
attr interpolationmode  none
attr source  dropPkIfaceDown
attr title  "packets dropped/interface down, count"
scalar Scenario.server.eth[0].mac 	droppedPkIfaceDown:sum(packetBytes) 	0
attr interpolationmode  none
attr source  dropPkIfaceDown
attr title  "packets dropped/interface down, sum(packetBytes)"
scalar Scenario.server.eth[0].mac 	droppedPkBitError:count 	0
attr interpolationmode  none
attr source  dropPkBitError
attr title  "packets dropped/bit error, count"
scalar Scenario.server.eth[0].mac 	droppedPkBitError:sum(packetBytes) 	0
attr interpolationmode  none
attr source  dropPkBitError
attr title  "packets dropped/bit error, sum(packetBytes)"
scalar Scenario.server.eth[0].mac 	rxPkFromHL:count 	2
attr interpolationmode  none
attr source  rxPkFromHL
attr title  "packet bytes from higher layer, count"
scalar Scenario.server.eth[0].mac 	rxPkFromHL:sum(packetBytes) 	128
attr interpolationmode  none
attr source  rxPkFromHL
attr title  "packet bytes from higher layer, sum(packetBytes)"
scalar Scenario.server.eth[0].mac 	rxPausePkUnits:count 	0
attr interpolationmode  none
attr title  "pause units received, count"
scalar Scenario.server.eth[0].mac 	rxPausePkUnits:sum 	0
attr interpolationmode  none
attr title  "pause units received, sum"
scalar Scenario.server.eth[0].mac 	txPausePkUnits:count 	0
attr interpolationmode  none
attr title  "pause units sent, count"
scalar Scenario.server.eth[0].mac 	txPausePkUnits:sum 	0
attr interpolationmode  none
attr title  "pause units sent, sum"
scalar Scenario.server.eth[0].mac 	rxPkOk:count 	3602
attr interpolationmode  none
attr source  rxPkOk
attr title  "packets received OK, count"
scalar Scenario.server.eth[0].mac 	rxPkOk:sum(packetBytes) 	968496
attr interpolationmode  none
attr source  rxPkOk
attr title  "packets received OK, sum(packetBytes)"
scalar Scenario.server.eth[0].mac 	txPk:count 	2
attr interpolationmode  none
attr source  txPk
attr title  "packets transmitted, count"
scalar Scenario.server.eth[0].mac 	txPk:sum(packetBytes) 	128
attr interpolationmode  none
attr source  txPk
attr title  "packets transmitted, sum(packetBytes)"
scalar Scenario.server.eth[0].mac 	passedUpPk:count 	3602
attr interpolationmode  none
attr source  packetSentToUpper
attr title  "packets passed to higher layer, count"
scalar Scenario.server.eth[0].mac 	passedUpPk:sum(packetBytes) 	968496
attr interpolationmode  none
attr source  packetSentToUpper
attr title  "packets passed to higher layer, sum(packetBytes)"
scalar Scenario.server.eth[0].encap 	pauseSent:count 	0
attr title  "pause sent, count"
scalar Scenario.server.eth[0].encap 	pauseSent:sum 	0
attr title  "pause sent, sum"
scalar Scenario.server.eth[0].encap 	decapPk:count 	3602
attr interpolationmode  none
attr source  decapPk
attr title  "packets decapsulated, count"
scalar Scenario.server.eth[0].encap 	decapPk:sum(packetBytes) 	849606
attr interpolationmode  none
attr source  decapPk
attr title  "packets decapsulated, sum(packetBytes)"
scalar Scenario.server.eth[0].encap 	encapPk:count 	2
attr interpolationmode  none
attr source  encapPk
attr title  "packets encapsulated, count"
scalar Scenario.server.eth[0].encap 	encapPk:sum(packetBytes) 	56
attr interpolationmode  none
attr source  encapPk
attr title  "packets encapsulated, sum(packetBytes)"
scalar Scenario.server.udpApp[0] 	rcvdPk:count 	3600
attr interpolationmode  none
attr source  rcvdPk
attr title  "packets received, count"
scalar Scenario.server.udpApp[0] 	rcvdPk:sum(packetBytes) 	748750
attr interpolationmode  none
attr source  rcvdPk
attr title  "packets received, sum(packetBytes)"
scalar Scenario.server.udp 	droppedPkBadChecksum:count 	0
attr interpolationmode  none
attr title  "packets dropped (checksum error), count"
scalar Scenario.server.udp 	droppedPkWrongPort:count 	0
attr interpolationmode  none
attr title  "packets dropped (wrong port), count"
scalar Scenario.server.udp 	passedUpPk:count 	3600
attr interpolationmode  none
attr title  "packets passed up, count"
scalar Scenario.server.udp 	rcvdPk:count 	3600
attr interpolationmode  none
attr source  rcvdPk
attr title  "packets received, count"
scalar Scenario.server.udp 	rcvdPk:sum(packetBytes) 	777550
attr interpolationmode  none
attr source  rcvdPk
attr title  "packets received, sum(packetBytes)"
scalar Scenario.server.udp 	sentPk:count 	0
attr interpolationmode  none
attr source  sentPk
attr title  "packets sent, count"
scalar Scenario.server.udp 	sentPk:sum(packetBytes) 	0
attr interpolationmode  none
attr source  sentPk
attr title  "packets sent, sum(packetBytes)"
scalar Scenario.open_flow_switch.networkLayer.arp 	failedARPResolution:count 	0
attr title  "ARP failed resolutions, count"
scalar Scenario.open_flow_switch.networkLayer.arp 	completedARPResolution:count 	2
attr title  "ARP completed resolutions, count"
scalar Scenario.open_flow_switch.networkLayer.arp 	initiatedARPResolution:count 	1
attr title  "ARP initiated resolutions, count"
scalar Scenario.open_flow_switch.networkLayer.arp 	sentReply:count 	1
attr title  "ARP replies sent, count"
scalar Scenario.open_flow_switch.networkLayer.arp 	sentReq:count 	1
attr title  "ARP request sent, count"
scalar Scenario.open_flow_switch.eth[0].mac 	"simulated time" 	150
scalar Scenario.open_flow_switch.eth[0].mac 	full-duplex 	1
scalar Scenario.open_flow_switch.eth[0].mac 	"frames/sec sent" 	0.24
scalar Scenario.open_flow_switch.eth[0].mac 	"frames/sec rcvd" 	0.23333333333333
scalar Scenario.open_flow_switch.eth[0].mac 	"bits/sec sent" 	206.82666666667
scalar Scenario.open_flow_switch.eth[0].mac 	"bits/sec rcvd" 	203.46666666667
scalar Scenario.open_flow_switch.eth[0].mac 	"rx channel idle (%)" 	99.9997816
scalar Scenario.open_flow_switch.eth[0].mac 	"rx channel utilization (%)" 	0.0002184
scalar Scenario.open_flow_switch.eth[0].mac 	droppedPkNotForUs:count 	0
attr interpolationmode  none
attr source  dropPkNotForUs
attr title  "packets dropped/not for us, count"
scalar Scenario.open_flow_switch.eth[0].mac 	droppedPkNotForUs:sum(packetBytes) 	0
attr interpolationmode  none
attr source  dropPkNotForUs
attr title  "packets dropped/not for us, sum(packetBytes)"
scalar Scenario.open_flow_switch.eth[0].mac 	droppedPkIfaceDown:count 	0
attr interpolationmode  none
attr source  dropPkIfaceDown
attr title  "packets dropped/interface down, count"
scalar Scenario.open_flow_switch.eth[0].mac 	droppedPkIfaceDown:sum(packetBytes) 	0
attr interpolationmode  none
attr source  dropPkIfaceDown
attr title  "packets dropped/interface down, sum(packetBytes)"
scalar Scenario.open_flow_switch.eth[0].mac 	droppedPkBitError:count 	0
attr interpolationmode  none
attr source  dropPkBitError
attr title  "packets dropped/bit error, count"
scalar Scenario.open_flow_switch.eth[0].mac 	droppedPkBitError:sum(packetBytes) 	0
attr interpolationmode  none
attr source  dropPkBitError
attr title  "packets dropped/bit error, sum(packetBytes)"
scalar Scenario.open_flow_switch.eth[0].mac 	rxPkFromHL:count 	36
attr interpolationmode  none
attr source  rxPkFromHL
attr title  "packet bytes from higher layer, count"
scalar Scenario.open_flow_switch.eth[0].mac 	rxPkFromHL:sum(packetBytes) 	3878
attr interpolationmode  none
attr source  rxPkFromHL
attr title  "packet bytes from higher layer, sum(packetBytes)"
scalar Scenario.open_flow_switch.eth[0].mac 	rxPausePkUnits:count 	0
attr interpolationmode  none
attr title  "pause units received, count"
scalar Scenario.open_flow_switch.eth[0].mac 	rxPausePkUnits:sum 	0
attr interpolationmode  none
attr title  "pause units received, sum"
scalar Scenario.open_flow_switch.eth[0].mac 	txPausePkUnits:count 	0
attr interpolationmode  none
attr title  "pause units sent, count"
scalar Scenario.open_flow_switch.eth[0].mac 	txPausePkUnits:sum 	0
attr interpolationmode  none
attr title  "pause units sent, sum"
scalar Scenario.open_flow_switch.eth[0].mac 	rxPkOk:count 	35
attr interpolationmode  none
attr source  rxPkOk
attr title  "packets received OK, count"
scalar Scenario.open_flow_switch.eth[0].mac 	rxPkOk:sum(packetBytes) 	3815
attr interpolationmode  none
attr source  rxPkOk
attr title  "packets received OK, sum(packetBytes)"
scalar Scenario.open_flow_switch.eth[0].mac 	txPk:count 	36
attr interpolationmode  none
attr source  txPk
attr title  "packets transmitted, count"
scalar Scenario.open_flow_switch.eth[0].mac 	txPk:sum(packetBytes) 	3878
attr interpolationmode  none
attr source  txPk
attr title  "packets transmitted, sum(packetBytes)"
scalar Scenario.open_flow_switch.eth[0].mac 	passedUpPk:count 	35
attr interpolationmode  none
attr source  packetSentToUpper
attr title  "packets passed to higher layer, count"
scalar Scenario.open_flow_switch.eth[0].mac 	passedUpPk:sum(packetBytes) 	3815
attr interpolationmode  none
attr source  packetSentToUpper
attr title  "packets passed to higher layer, sum(packetBytes)"
scalar Scenario.open_flow_switch.eth[0].encap 	pauseSent:count 	0
attr title  "pause sent, count"
scalar Scenario.open_flow_switch.eth[0].encap 	pauseSent:sum 	0
attr title  "pause sent, sum"
scalar Scenario.open_flow_switch.eth[0].encap 	decapPk:count 	35
attr interpolationmode  none
attr source  decapPk
attr title  "packets decapsulated, count"
scalar Scenario.open_flow_switch.eth[0].encap 	decapPk:sum(packetBytes) 	3012
attr interpolationmode  none
attr source  decapPk
attr title  "packets decapsulated, sum(packetBytes)"
scalar Scenario.open_flow_switch.eth[0].encap 	encapPk:count 	36
attr interpolationmode  none
attr source  encapPk
attr title  "packets encapsulated, count"
scalar Scenario.open_flow_switch.eth[0].encap 	encapPk:sum(packetBytes) 	3049
attr interpolationmode  none
attr source  encapPk
attr title  "packets encapsulated, sum(packetBytes)"
scalar Scenario.open_flow_switch.etherMAC[0] 	"simulated time" 	150
scalar Scenario.open_flow_switch.etherMAC[0] 	full-duplex 	1
scalar Scenario.open_flow_switch.etherMAC[0] 	"frames/sec sent" 	0.013333333333333
scalar Scenario.open_flow_switch.etherMAC[0] 	"frames/sec rcvd" 	45.006666666667
scalar Scenario.open_flow_switch.etherMAC[0] 	"bits/sec sent" 	6.8266666666667
scalar Scenario.open_flow_switch.etherMAC[0] 	"bits/sec rcvd" 	72257.706666667
scalar Scenario.open_flow_switch.etherMAC[0] 	"rx channel idle (%)" 	99.924861866667
scalar Scenario.open_flow_switch.etherMAC[0] 	"rx channel utilization (%)" 	0.075138133333333
scalar Scenario.open_flow_switch.etherMAC[0] 	"rx channel collision (%)" 	0
scalar Scenario.open_flow_switch.etherMAC[0] 	collisions 	0
scalar Scenario.open_flow_switch.etherMAC[0] 	backoffs 	0
scalar Scenario.open_flow_switch.etherMAC[0] 	droppedPkNotForUs:count 	0
attr interpolationmode  none
attr source  dropPkNotForUs
attr title  "packets dropped/not for us, count"
scalar Scenario.open_flow_switch.etherMAC[0] 	droppedPkNotForUs:sum(packetBytes) 	0
attr interpolationmode  none
attr source  dropPkNotForUs
attr title  "packets dropped/not for us, sum(packetBytes)"
scalar Scenario.open_flow_switch.etherMAC[0] 	droppedPkIfaceDown:count 	0
attr interpolationmode  none
attr source  dropPkIfaceDown
attr title  "packets dropped/interface down, count"
scalar Scenario.open_flow_switch.etherMAC[0] 	droppedPkIfaceDown:sum(packetBytes) 	0
attr interpolationmode  none
attr source  dropPkIfaceDown
attr title  "packets dropped/interface down, sum(packetBytes)"
scalar Scenario.open_flow_switch.etherMAC[0] 	droppedPkBitError:count 	0
attr interpolationmode  none
attr source  dropPkBitError
attr title  "packets dropped/bit error, count"
scalar Scenario.open_flow_switch.etherMAC[0] 	droppedPkBitError:sum(packetBytes) 	0
attr interpolationmode  none
attr source  dropPkBitError
attr title  "packets dropped/bit error, sum(packetBytes)"
scalar Scenario.open_flow_switch.etherMAC[0] 	rxPkFromHL:count 	2
attr interpolationmode  none
attr source  rxPkFromHL
attr title  "packet bytes from higher layer, count"
scalar Scenario.open_flow_switch.etherMAC[0] 	rxPkFromHL:sum(packetBytes) 	128
attr interpolationmode  none
attr source  rxPkFromHL
attr title  "packet bytes from higher layer, sum(packetBytes)"
scalar Scenario.open_flow_switch.etherMAC[0] 	rxPausePkUnits:count 	0
attr interpolationmode  none
attr title  "pause units received, count"
scalar Scenario.open_flow_switch.etherMAC[0] 	rxPausePkUnits:sum 	0
attr interpolationmode  none
attr title  "pause units received, sum"
scalar Scenario.open_flow_switch.etherMAC[0] 	txPausePkUnits:count 	0
attr interpolationmode  none
attr title  "pause units sent, count"
scalar Scenario.open_flow_switch.etherMAC[0] 	txPausePkUnits:sum 	0
attr interpolationmode  none
attr title  "pause units sent, sum"
scalar Scenario.open_flow_switch.etherMAC[0] 	rxPkOk:count 	6751
attr interpolationmode  none
attr source  rxPkOk
attr title  "packets received OK, count"
scalar Scenario.open_flow_switch.etherMAC[0] 	rxPkOk:sum(packetBytes) 	1354832
attr interpolationmode  none
attr source  rxPkOk
attr title  "packets received OK, sum(packetBytes)"
scalar Scenario.open_flow_switch.etherMAC[0] 	txPk:count 	2
attr interpolationmode  none
attr source  txPk
attr title  "packets transmitted, count"
scalar Scenario.open_flow_switch.etherMAC[0] 	txPk:sum(packetBytes) 	128
attr interpolationmode  none
attr source  txPk
attr title  "packets transmitted, sum(packetBytes)"
scalar Scenario.open_flow_switch.etherMAC[0] 	backoff:count 	0
attr interpolationmode  none
attr title  "backoff, count"
scalar Scenario.open_flow_switch.etherMAC[0] 	collision:count 	0
attr interpolationmode  none
attr title  "collision, count"
scalar Scenario.open_flow_switch.etherMAC[0] 	passedUpPk:count 	6751
attr interpolationmode  none
attr source  packetSentToUpper
attr title  "packets passed to higher layer, count"
scalar Scenario.open_flow_switch.etherMAC[0] 	passedUpPk:sum(packetBytes) 	1354832
attr interpolationmode  none
attr source  packetSentToUpper
attr title  "packets passed to higher layer, sum(packetBytes)"
scalar Scenario.open_flow_switch.etherMAC[1] 	"simulated time" 	150
scalar Scenario.open_flow_switch.etherMAC[1] 	full-duplex 	1
scalar Scenario.open_flow_switch.etherMAC[1] 	"frames/sec sent" 	24.013333333333
scalar Scenario.open_flow_switch.etherMAC[1] 	"frames/sec rcvd" 	0.013333333333333
scalar Scenario.open_flow_switch.etherMAC[1] 	"bits/sec sent" 	51653.12
scalar Scenario.open_flow_switch.etherMAC[1] 	"bits/sec rcvd" 	6.8266666666667
scalar Scenario.open_flow_switch.etherMAC[1] 	"rx channel idle (%)" 	99.99999232
scalar Scenario.open_flow_switch.etherMAC[1] 	"rx channel utilization (%)" 	7.68e-06
scalar Scenario.open_flow_switch.etherMAC[1] 	"rx channel collision (%)" 	0
scalar Scenario.open_flow_switch.etherMAC[1] 	collisions 	0
scalar Scenario.open_flow_switch.etherMAC[1] 	backoffs 	0
scalar Scenario.open_flow_switch.etherMAC[1] 	droppedPkNotForUs:count 	0
attr interpolationmode  none
attr source  dropPkNotForUs
attr title  "packets dropped/not for us, count"
scalar Scenario.open_flow_switch.etherMAC[1] 	droppedPkNotForUs:sum(packetBytes) 	0
attr interpolationmode  none
attr source  dropPkNotForUs
attr title  "packets dropped/not for us, sum(packetBytes)"
scalar Scenario.open_flow_switch.etherMAC[1] 	droppedPkIfaceDown:count 	0
attr interpolationmode  none
attr source  dropPkIfaceDown
attr title  "packets dropped/interface down, count"
scalar Scenario.open_flow_switch.etherMAC[1] 	droppedPkIfaceDown:sum(packetBytes) 	0
attr interpolationmode  none
attr source  dropPkIfaceDown
attr title  "packets dropped/interface down, sum(packetBytes)"
scalar Scenario.open_flow_switch.etherMAC[1] 	droppedPkBitError:count 	0
attr interpolationmode  none
attr source  dropPkBitError
attr title  "packets dropped/bit error, count"
scalar Scenario.open_flow_switch.etherMAC[1] 	droppedPkBitError:sum(packetBytes) 	0
attr interpolationmode  none
attr source  dropPkBitError
attr title  "packets dropped/bit error, sum(packetBytes)"
scalar Scenario.open_flow_switch.etherMAC[1] 	rxPkFromHL:count 	3602
attr interpolationmode  none
attr source  rxPkFromHL
attr title  "packet bytes from higher layer, count"
scalar Scenario.open_flow_switch.etherMAC[1] 	rxPkFromHL:sum(packetBytes) 	968496
attr interpolationmode  none
attr source  rxPkFromHL
attr title  "packet bytes from higher layer, sum(packetBytes)"
scalar Scenario.open_flow_switch.etherMAC[1] 	rxPausePkUnits:count 	0
attr interpolationmode  none
attr title  "pause units received, count"
scalar Scenario.open_flow_switch.etherMAC[1] 	rxPausePkUnits:sum 	0
attr interpolationmode  none
attr title  "pause units received, sum"
scalar Scenario.open_flow_switch.etherMAC[1] 	txPausePkUnits:count 	0
attr interpolationmode  none
attr title  "pause units sent, count"
scalar Scenario.open_flow_switch.etherMAC[1] 	txPausePkUnits:sum 	0
attr interpolationmode  none
attr title  "pause units sent, sum"
scalar Scenario.open_flow_switch.etherMAC[1] 	rxPkOk:count 	2
attr interpolationmode  none
attr source  rxPkOk
attr title  "packets received OK, count"
scalar Scenario.open_flow_switch.etherMAC[1] 	rxPkOk:sum(packetBytes) 	128
attr interpolationmode  none
attr source  rxPkOk
attr title  "packets received OK, sum(packetBytes)"
scalar Scenario.open_flow_switch.etherMAC[1] 	txPk:count 	3602
attr interpolationmode  none
attr source  txPk
attr title  "packets transmitted, count"
scalar Scenario.open_flow_switch.etherMAC[1] 	txPk:sum(packetBytes) 	968496
attr interpolationmode  none
attr source  txPk
attr title  "packets transmitted, sum(packetBytes)"
scalar Scenario.open_flow_switch.etherMAC[1] 	backoff:count 	0
attr interpolationmode  none
attr title  "backoff, count"
scalar Scenario.open_flow_switch.etherMAC[1] 	collision:count 	0
attr interpolationmode  none
attr title  "collision, count"
scalar Scenario.open_flow_switch.etherMAC[1] 	passedUpPk:count 	2
attr interpolationmode  none
attr source  packetSentToUpper
attr title  "packets passed to higher layer, count"
scalar Scenario.open_flow_switch.etherMAC[1] 	passedUpPk:sum(packetBytes) 	128
attr interpolationmode  none
attr source  packetSentToUpper
attr title  "packets passed to higher layer, sum(packetBytes)"
scalar Scenario.open_flow_switch.open_Flow_Processing 	droppedPkt:last 	3149
attr source  droppedPkt
scalar Scenario.controller.networkLayer.arp 	failedARPResolution:count 	0
attr title  "ARP failed resolutions, count"
scalar Scenario.controller.networkLayer.arp 	completedARPResolution:count 	2
attr title  "ARP completed resolutions, count"
scalar Scenario.controller.networkLayer.arp 	initiatedARPResolution:count 	1
attr title  "ARP initiated resolutions, count"
scalar Scenario.controller.networkLayer.arp 	sentReply:count 	1
attr title  "ARP replies sent, count"
scalar Scenario.controller.networkLayer.arp 	sentReq:count 	1
attr title  "ARP request sent, count"
scalar Scenario.controller.lo0.lo 	droppedPkBitError:count 	0
attr interpolationmode  none
attr source  dropPkBitError
attr title  "packets dropped/bit error, count"
scalar Scenario.controller.lo0.lo 	droppedPkBitError:sum(packetBytes) 	0
attr interpolationmode  none
attr source  dropPkBitError
attr title  "packets dropped/bit error, sum(packetBytes)"
scalar Scenario.controller.lo0.lo 	rcvdPkFromHL:count 	0
attr interpolationmode  none
attr source  packetReceivedFromUpper
attr title  "packets received from higher layer, count"
scalar Scenario.controller.lo0.lo 	rcvdPkFromHL:sum(packetBytes) 	0
attr interpolationmode  none
attr source  packetReceivedFromUpper
attr title  "packets received from higher layer, sum(packetBytes)"
scalar Scenario.controller.lo0.lo 	passedUpPk:count 	0
attr interpolationmode  none
attr source  packetSentToUpper
attr title  "packets passed to higher layer, count"
scalar Scenario.controller.lo0.lo 	passedUpPk:sum(packetBytes) 	0
attr interpolationmode  none
attr source  packetSentToUpper
attr title  "packets passed to higher layer, sum(packetBytes)"
scalar Scenario.controller.eth[0].mac 	"simulated time" 	150
scalar Scenario.controller.eth[0].mac 	full-duplex 	1
scalar Scenario.controller.eth[0].mac 	"frames/sec sent" 	0.23333333333333
scalar Scenario.controller.eth[0].mac 	"frames/sec rcvd" 	0.24
scalar Scenario.controller.eth[0].mac 	"bits/sec sent" 	203.46666666667
scalar Scenario.controller.eth[0].mac 	"bits/sec rcvd" 	206.82666666667
scalar Scenario.controller.eth[0].mac 	"rx channel idle (%)" 	99.999777813333
scalar Scenario.controller.eth[0].mac 	"rx channel utilization (%)" 	0.00022218666666667
scalar Scenario.controller.eth[0].mac 	droppedPkNotForUs:count 	0
attr interpolationmode  none
attr source  dropPkNotForUs
attr title  "packets dropped/not for us, count"
scalar Scenario.controller.eth[0].mac 	droppedPkNotForUs:sum(packetBytes) 	0
attr interpolationmode  none
attr source  dropPkNotForUs
attr title  "packets dropped/not for us, sum(packetBytes)"
scalar Scenario.controller.eth[0].mac 	droppedPkIfaceDown:count 	0
attr interpolationmode  none
attr source  dropPkIfaceDown
attr title  "packets dropped/interface down, count"
scalar Scenario.controller.eth[0].mac 	droppedPkIfaceDown:sum(packetBytes) 	0
attr interpolationmode  none
attr source  dropPkIfaceDown
attr title  "packets dropped/interface down, sum(packetBytes)"
scalar Scenario.controller.eth[0].mac 	droppedPkBitError:count 	0
attr interpolationmode  none
attr source  dropPkBitError
attr title  "packets dropped/bit error, count"
scalar Scenario.controller.eth[0].mac 	droppedPkBitError:sum(packetBytes) 	0
attr interpolationmode  none
attr source  dropPkBitError
attr title  "packets dropped/bit error, sum(packetBytes)"
scalar Scenario.controller.eth[0].mac 	rxPkFromHL:count 	35
attr interpolationmode  none
attr source  rxPkFromHL
attr title  "packet bytes from higher layer, count"
scalar Scenario.controller.eth[0].mac 	rxPkFromHL:sum(packetBytes) 	3815
attr interpolationmode  none
attr source  rxPkFromHL
attr title  "packet bytes from higher layer, sum(packetBytes)"
scalar Scenario.controller.eth[0].mac 	rxPausePkUnits:count 	0
attr interpolationmode  none
attr title  "pause units received, count"
scalar Scenario.controller.eth[0].mac 	rxPausePkUnits:sum 	0
attr interpolationmode  none
attr title  "pause units received, sum"
scalar Scenario.controller.eth[0].mac 	txPausePkUnits:count 	0
attr interpolationmode  none
attr title  "pause units sent, count"
scalar Scenario.controller.eth[0].mac 	txPausePkUnits:sum 	0
attr interpolationmode  none
attr title  "pause units sent, sum"
scalar Scenario.controller.eth[0].mac 	rxPkOk:count 	36
attr interpolationmode  none
attr source  rxPkOk
attr title  "packets received OK, count"
scalar Scenario.controller.eth[0].mac 	rxPkOk:sum(packetBytes) 	3878
attr interpolationmode  none
attr source  rxPkOk
attr title  "packets received OK, sum(packetBytes)"
scalar Scenario.controller.eth[0].mac 	txPk:count 	35
attr interpolationmode  none
attr source  txPk
attr title  "packets transmitted, count"
scalar Scenario.controller.eth[0].mac 	txPk:sum(packetBytes) 	3815
attr interpolationmode  none
attr source  txPk
attr title  "packets transmitted, sum(packetBytes)"
scalar Scenario.controller.eth[0].mac 	passedUpPk:count 	36
attr interpolationmode  none
attr source  packetSentToUpper
attr title  "packets passed to higher layer, count"
scalar Scenario.controller.eth[0].mac 	passedUpPk:sum(packetBytes) 	3878
attr interpolationmode  none
attr source  packetSentToUpper
attr title  "packets passed to higher layer, sum(packetBytes)"
scalar Scenario.controller.eth[0].encap 	pauseSent:count 	0
attr title  "pause sent, count"
scalar Scenario.controller.eth[0].encap 	pauseSent:sum 	0
attr title  "pause sent, sum"
scalar Scenario.controller.eth[0].encap 	decapPk:count 	36
attr interpolationmode  none
attr source  decapPk
attr title  "packets decapsulated, count"
scalar Scenario.controller.eth[0].encap 	decapPk:sum(packetBytes) 	3049
attr interpolationmode  none
attr source  decapPk
attr title  "packets decapsulated, sum(packetBytes)"
scalar Scenario.controller.eth[0].encap 	encapPk:count 	35
attr interpolationmode  none
attr source  encapPk
attr title  "packets encapsulated, count"
scalar Scenario.controller.eth[0].encap 	encapPk:sum(packetBytes) 	3012
attr interpolationmode  none
attr source  encapPk
attr title  "packets encapsulated, sum(packetBytes)"
statistic Scenario.controller.entropy 	entropy:stats
field count 4
field mean -100.0020254176
field stddev 178.30111928786
field sum -400.00810167038
field sqrsum 135375.48776839
field min -367.45369728004
field max -10.793491799781
attr source  entropy
attr title  "Entropy Value, stats"
